Circuit: * C:\Users\Noman Ahmed\Desktop\Desktop_15Oct19\Freelance\Jobs\davidmarshal336\Prob 1 3 5 Sims B4 Aftr\Prob 3_After.asc

Direct Newton iteration for .op point succeeded.

Date: Sat Apr 02 20:51:49 2022
Total elapsed time: 0.205 seconds.

tnom = 27
temp = 27
method = modified trap
totiter = 2052
traniter = 2040
tranpoints = 1021
accept = 1021
rejected = 0
matrix size = 16
fillins = 0
solver = Normal
Matrix Compiler1: 690 bytes object code size  0.5/0.3/[0.2]
Matrix Compiler2: 1.12 KB object code size  0.3/0.5/[0.3]

