Circuit: * C:\Users\Noman Ahmed\Desktop\Desktop_15Oct19\Freelance\Jobs\davidmarshal336\Prob 1 3 5 Sims B4 Aftr\Prob 1_After.asc

Warning: Multiple definitions of model "2scr375p" Type: BJT
Warning: Multiple definitions of model "bc857b" Type: BJT
Warning: Multiple definitions of model "bc847c" Type: BJT
Warning: Multiple definitions of model "bc847b" Type: BJT
Direct Newton iteration for .op point succeeded.

Date: Sat Apr 02 20:49:20 2022
Total elapsed time: 0.545 seconds.

tnom = 27
temp = 27
method = modified trap
totiter = 2051
traniter = 2040
tranpoints = 1021
accept = 1021
rejected = 0
matrix size = 18
fillins = 0
solver = Normal
Matrix Compiler1: 932 bytes object code size  0.6/0.4/[0.2]
Matrix Compiler2: 1.31 KB object code size  0.3/0.5/[0.3]

