Circuit: * C:\Users\Noman Ahmed\Desktop\Desktop_15Oct19\Freelance\Jobs\davidmarshal336\Prob 1 3 5 Sims B4 Aftr\Prob 5_After.asc

Warning: Multiple definitions of model "2scr375p" Type: BJT
Warning: Multiple definitions of model "bc857b" Type: BJT
Warning: Multiple definitions of model "bc847c" Type: BJT
Warning: Multiple definitions of model "bc847b" Type: BJT
Direct Newton iteration for .op point succeeded.

Date: Sat Apr 02 20:58:50 2022
Total elapsed time: 0.290 seconds.

tnom = 27
temp = 27
method = modified trap
totiter = 2051
traniter = 2040
tranpoints = 1021
accept = 1021
rejected = 0
matrix size = 12
fillins = 0
solver = Normal
Matrix Compiler1: 606 bytes object code size  0.4/0.3/[0.2]
Matrix Compiler2: 886 bytes object code size  0.2/0.4/[0.2]

