Circuit: * D:\Dropbox\Volodyne\Volodyne Engineering\00 PCB\PCB 18.16 AS ORDERED\Prob 1 3 5 Sims B4 Aftr_01\Prob 1 3 5 Sims B4 Aftr_01\Prob 1_Before.asc

Direct Newton iteration for .op point succeeded.

Date: Thu Apr 14 10:43:09 2022
Total elapsed time: 0.053 seconds.

tnom = 27
temp = 27
method = modified trap
totiter = 2052
traniter = 2040
tranpoints = 1021
accept = 1021
rejected = 0
matrix size = 9
fillins = 0
solver = Normal
Matrix Compiler1: 456 bytes object code size  0.1/0.1/[0.0]
Matrix Compiler2: 667 bytes object code size  0.1/0.1/[0.1]

