Circuit: * D:\Dropbox\Volodyne\Volodyne Engineering\00 PCB\PCB 18.16 AS ORDERED\Prob 1 3 5 Sims B4 Aftr_01\Prob 1 3 5 Sims B4 Aftr_01\Prob 5_Before.asc

Direct Newton iteration for .op point succeeded.

Date: Thu Apr 14 13:51:56 2022
Total elapsed time: 0.044 seconds.

tnom = 27
temp = 27
method = modified trap
totiter = 2048
traniter = 2040
tranpoints = 1021
accept = 1021
rejected = 0
matrix size = 10
fillins = 0
solver = Normal
Matrix Compiler1: 506 bytes object code size  0.1/0.1/[0.1]
Matrix Compiler2: 740 bytes object code size  0.1/0.1/[0.1]

