Circuit: * C:\Users\Noman Ahmed\Desktop\Desktop_15Oct19\Freelance\Jobs\davidmarshal336\archive\Prob 3_Before.asc

Warning: Multiple definitions of model "2scr375p" Type: BJT
Warning: Multiple definitions of model "bc857b" Type: BJT
Warning: Multiple definitions of model "bc847c" Type: BJT
Warning: Multiple definitions of model "bc847b" Type: BJT
Direct Newton iteration for .op point succeeded.

Date: Thu Mar 31 00:18:33 2022
Total elapsed time: 0.419 seconds.

tnom = 27
temp = 27
method = modified trap
totiter = 2052
traniter = 2040
tranpoints = 1021
accept = 1021
rejected = 0
matrix size = 20
fillins = 1
solver = Normal
Matrix Compiler1: 1.11 KB object code size  0.6/0.2/[0.2]
Matrix Compiler2: off  [0.2]/0.3/0.3

